[General]
sim-time-limit = 2s
network = pon
pon.host3.cli.destAddress = "pon.host2"
pon.host4.cli.destAddress = "pon.host2"
pon.host1.cli.destAddress = "pon.host2"
pon.host1.cli.startTime = 5.1ms
pon.host2.cli.startTime = 5.1ms
pon.host3.cli.startTime = 5.1ms
pon.host4.cli.startTime = 5.1ms
**.cli.reqLength = uniform(100B,1200B)
**.mac.txrate = 1Gbps
**.cli.respLength = uniform(100B,1200B)
**.cli.sendInterval = ${0.01..0.2 step 0.005}ms
pon.epon_olt.olt_if.olt_Q_mgmt.regTimeInt = 5ms
pon.epon_olt.olt_if.olt_Q_mgmt.slotLength = 2168ns
pon.epon_olt.olt_if.olt_Q_mgmt.slotNumber = 128

